<?xml version="1.0" encoding="UTF-8"?>

<!-- generated on 2022-11-13 10:56:02 by Eclipse SUMO od2trips Version 1.14.1
<configuration xmlns:xsi="http://www.w3.org/2001/XMLSchema-instance" xsi:noNamespaceSchemaLocation="http://sumo.dlr.de/xsd/od2tripsConfiguration.xsd">

    <input>
        <taz-files value="test.taz.xml"/>
        <tazrelation-files value="freiham_school.xsd"/>
    </input>

    <output>
        <output-file value="..\osm-test-school.rou.xml"/>
        <persontrips value="true"/>
        <persontrips.modes value="taxi"/>
    </output>

    <processing>
        <prefix value="school"/>
        <timeline value="0:0,23400:1,34200:0,45000:1,63000:0,68400:0"/>
    </processing>

</configuration>
-->

<routes xmlns:xsi="http://www.w3.org/2001/XMLSchema-instance" xsi:noNamespaceSchemaLocation="http://sumo.dlr.de/xsd/routes_file.xsd">
    <person id="school1031" depart="23401.84" departPos="random">
        <personTrip from="-E14" to="-721302669#2" fromTaz="fh_living" toTaz="fh_education" arrivalPos="random" modes="taxi"/>
    </person>
    <person id="school252" depart="23402.83" departPos="random">
        <personTrip from="504569020#1" to="E62" fromTaz="fh_education" toTaz="fh_living" arrivalPos="random" modes="taxi"/>
    </person>
    <person id="school664" depart="23418.97" departPos="random">
        <personTrip from="-772719711#0" to="dropoff_lane1" fromTaz="fh_education" toTaz="pasing_p_dropoff" arrivalPos="random" modes="taxi"/>
    </person>
    <person id="school267" depart="23452.47" departPos="random">
        <personTrip from="-721302669#2" to="-504566812#0" fromTaz="fh_education" toTaz="fh_living" arrivalPos="random" modes="taxi"/>
    </person>
    <person id="school4" depart="23455.65" departPos="random">
        <personTrip from="-721302669#2" to="E55" fromTaz="fh_education" toTaz="fh_living" arrivalPos="random" modes="taxi"/>
    </person>
    <person id="school528" depart="23473.98" departPos="random">
        <personTrip from="-721302669#2" to="-407568052#2" fromTaz="fh_education" toTaz="fh_living" arrivalPos="random" modes="taxi"/>
    </person>
    <person id="school170" depart="23488.60" departPos="random">
        <personTrip from="-772719711#0" to="E69" fromTaz="fh_education" toTaz="fh_living" arrivalPos="random" modes="taxi"/>
    </person>
    <person id="school601" depart="23494.44" departPos="random">
        <personTrip from="-772719711#0" to="dropoff_lane2" fromTaz="fh_education" toTaz="pasing_p_dropoff" arrivalPos="random" modes="taxi"/>
    </person>
    <person id="school1221" depart="23500.27" departPos="random">
        <personTrip from="E50" to="504569020#1" fromTaz="fh_living" toTaz="fh_education" arrivalPos="random" modes="taxi"/>
    </person>
    <person id="school344" depart="23509.27" departPos="random">
        <personTrip from="-772719711#0" to="-E47" fromTaz="fh_education" toTaz="fh_living" arrivalPos="random" modes="taxi"/>
    </person>
    <person id="school356" depart="23511.65" departPos="random">
        <personTrip from="504569020#1" to="E62" fromTaz="fh_education" toTaz="fh_living" arrivalPos="random" modes="taxi"/>
    </person>
    <person id="school1105" depart="23514.32" departPos="random">
        <personTrip from="-E43" to="-721302669#2" fromTaz="fh_living" toTaz="fh_education" arrivalPos="random" modes="taxi"/>
    </person>
    <person id="school51" depart="23521.78" departPos="random">
        <personTrip from="504569020#1" to="E51" fromTaz="fh_education" toTaz="fh_living" arrivalPos="random" modes="taxi"/>
    </person>
    <person id="school801" depart="23522.49" departPos="random">
        <personTrip from="-504565992#3" to="504569020#1" fromTaz="fh_living" toTaz="fh_education" arrivalPos="random" modes="taxi"/>
    </person>
    <person id="school897" depart="23525.00" departPos="random">
        <personTrip from="-E65" to="-721302669#2" fromTaz="fh_living" toTaz="fh_education" arrivalPos="random" modes="taxi"/>
    </person>
    <person id="school325" depart="23530.11" departPos="random">
        <personTrip from="-721302669#2" to="-E54" fromTaz="fh_education" toTaz="fh_living" arrivalPos="random" modes="taxi"/>
    </person>
    <person id="school1039" depart="23550.91" departPos="random">
        <personTrip from="-E150" to="504569020#1" fromTaz="fh_living" toTaz="fh_education" arrivalPos="random" modes="taxi"/>
    </person>
    <person id="school492" depart="23553.28" departPos="random">
        <personTrip from="-721302669#2" to="504566812#0" fromTaz="fh_education" toTaz="fh_living" arrivalPos="random" modes="taxi"/>
    </person>
    <person id="school32" depart="23558.69" departPos="random">
        <personTrip from="504569020#1" to="407581698#2" fromTaz="fh_education" toTaz="fh_living" arrivalPos="random" modes="taxi"/>
    </person>
    <person id="school409" depart="23582.42" departPos="random">
        <personTrip from="-772719711#0" to="E62" fromTaz="fh_education" toTaz="fh_living" arrivalPos="random" modes="taxi"/>
    </person>
    <person id="school981" depart="23587.95" departPos="random">
        <personTrip from="-504565992#3" to="504569020#1" fromTaz="fh_living" toTaz="fh_education" arrivalPos="random" modes="taxi"/>
    </person>
    <person id="school50" depart="23601.67" departPos="random">
        <personTrip from="-721302669#2" to="E43" fromTaz="fh_education" toTaz="fh_living" arrivalPos="random" modes="taxi"/>
    </person>
    <person id="school227" depart="23602.95" departPos="random">
        <personTrip from="-772719711#0" to="E58" fromTaz="fh_education" toTaz="fh_living" arrivalPos="random" modes="taxi"/>
    </person>
    <person id="school54" depart="23607.72" departPos="random">
        <personTrip from="-772719711#0" to="407568052#1" fromTaz="fh_education" toTaz="fh_living" arrivalPos="random" modes="taxi"/>
    </person>
    <person id="school296" depart="23608.04" departPos="random">
        <personTrip from="504569020#1" to="E58" fromTaz="fh_education" toTaz="fh_living" arrivalPos="random" modes="taxi"/>
    </person>
    <person id="school971" depart="23611.69" departPos="random">
        <personTrip from="E51" to="-721302669#2" fromTaz="fh_living" toTaz="fh_education" arrivalPos="random" modes="taxi"/>
    </person>
    <person id="school192" depart="23615.86" departPos="random">
        <personTrip from="-772719711#0" to="E55" fromTaz="fh_education" toTaz="fh_living" arrivalPos="random" modes="taxi"/>
    </person>
    <person id="school365" depart="23620.65" departPos="random">
        <personTrip from="504569020#1" to="407568052#0" fromTaz="fh_education" toTaz="fh_living" arrivalPos="random" modes="taxi"/>
    </person>
    <person id="school833" depart="23636.20" departPos="random">
        <personTrip from="504566810#0" to="-772719711#0" fromTaz="fh_living" toTaz="fh_education" arrivalPos="random" modes="taxi"/>
    </person>
    <person id="school211" depart="23641.82" departPos="random">
        <personTrip from="504569020#1" to="-E62" fromTaz="fh_education" toTaz="fh_living" arrivalPos="random" modes="taxi"/>
    </person>
    <person id="school1305" depart="23644.22" departPos="random">
        <personTrip from="pickup_lane1" to="-721302669#2" fromTaz="pasing_p_pickup" toTaz="fh_education" arrivalPos="random" modes="taxi"/>
    </person>
    <person id="school758" depart="23651.89" departPos="random">
        <personTrip from="-E59" to="-772719711#0" fromTaz="fh_living" toTaz="fh_education" arrivalPos="random" modes="taxi"/>
    </person>
    <person id="school934" depart="23684.35" departPos="random">
        <personTrip from="E60" to="-772719711#0" fromTaz="fh_living" toTaz="fh_education" arrivalPos="random" modes="taxi"/>
    </person>
    <person id="school1292" depart="23687.53" departPos="random">
        <personTrip from="pickup_lane2" to="504569020#1" fromTaz="pasing_p_pickup" toTaz="fh_education" arrivalPos="random" modes="taxi"/>
    </person>
    <person id="school914" depart="23698.61" departPos="random">
        <personTrip from="504566812#1" to="-721302669#2" fromTaz="fh_living" toTaz="fh_education" arrivalPos="random" modes="taxi"/>
    </person>
    <person id="school764" depart="23698.89" departPos="random">
        <personTrip from="-E40" to="504569020#1" fromTaz="fh_living" toTaz="fh_education" arrivalPos="random" modes="taxi"/>
    </person>
    <person id="school493" depart="23702.97" departPos="random">
        <personTrip from="-772719711#0" to="-E43" fromTaz="fh_education" toTaz="fh_living" arrivalPos="random" modes="taxi"/>
    </person>
    <person id="school328" depart="23706.36" departPos="random">
        <personTrip from="-772719711#0" to="E43" fromTaz="fh_education" toTaz="fh_living" arrivalPos="random" modes="taxi"/>
    </person>
    <person id="school537" depart="23712.99" departPos="random">
        <personTrip from="-721302669#2" to="-E62" fromTaz="fh_education" toTaz="fh_living" arrivalPos="random" modes="taxi"/>
    </person>
    <person id="school97" depart="23715.31" departPos="random">
        <personTrip from="-721302669#2" to="E43" fromTaz="fh_education" toTaz="fh_living" arrivalPos="random" modes="taxi"/>
    </person>
    <person id="school922" depart="23718.06" departPos="random">
        <personTrip from="E64" to="504569020#1" fromTaz="fh_living" toTaz="fh_education" arrivalPos="random" modes="taxi"/>
    </person>
    <person id="school84" depart="23722.82" departPos="random">
        <personTrip from="-721302669#2" to="-E67" fromTaz="fh_education" toTaz="fh_living" arrivalPos="random" modes="taxi"/>
    </person>
    <person id="school523" depart="23740.80" departPos="random">
        <personTrip from="-772719711#0" to="407568052#2" fromTaz="fh_education" toTaz="fh_living" arrivalPos="random" modes="taxi"/>
    </person>
    <person id="school197" depart="23742.87" departPos="random">
        <personTrip from="-721302669#2" to="-E70" fromTaz="fh_education" toTaz="fh_living" arrivalPos="random" modes="taxi"/>
    </person>
    <person id="school20" depart="23745.66" departPos="random">
        <personTrip from="-772719711#0" to="E44" fromTaz="fh_education" toTaz="fh_living" arrivalPos="random" modes="taxi"/>
    </person>
    <person id="school19" depart="23752.32" departPos="random">
        <personTrip from="-721302669#2" to="-E63" fromTaz="fh_education" toTaz="fh_living" arrivalPos="random" modes="taxi"/>
    </person>
    <person id="school431" depart="23755.36" departPos="random">
        <personTrip from="-721302669#2" to="E62" fromTaz="fh_education" toTaz="fh_living" arrivalPos="random" modes="taxi"/>
    </person>
    <person id="school455" depart="23767.30" departPos="random">
        <personTrip from="-772719711#0" to="E15" fromTaz="fh_education" toTaz="fh_living" arrivalPos="random" modes="taxi"/>
    </person>
    <person id="school6" depart="23781.92" departPos="random">
        <personTrip from="504569020#1" to="E62" fromTaz="fh_education" toTaz="fh_living" arrivalPos="random" modes="taxi"/>
    </person>
    <person id="school300" depart="23782.67" departPos="random">
        <personTrip from="504569020#1" to="E66" fromTaz="fh_education" toTaz="fh_living" arrivalPos="random" modes="taxi"/>
    </person>
    <person id="school432" depart="23785.18" departPos="random">
        <personTrip from="-772719711#0" to="E14" fromTaz="fh_education" toTaz="fh_living" arrivalPos="random" modes="taxi"/>
    </person>
    <person id="school360" depart="23793.73" departPos="random">
        <personTrip from="504569020#1" to="-E14" fromTaz="fh_education" toTaz="fh_living" arrivalPos="random" modes="taxi"/>
    </person>
    <person id="school1223" depart="23797.95" departPos="random">
        <personTrip from="E67" to="504569020#1" fromTaz="fh_living" toTaz="fh_education" arrivalPos="random" modes="taxi"/>
    </person>
    <person id="school63" depart="23817.29" departPos="random">
        <personTrip from="-721302669#2" to="-504566810#0" fromTaz="fh_education" toTaz="fh_living" arrivalPos="random" modes="taxi"/>
    </person>
    <person id="school1389" depart="23820.35" departPos="random">
        <personTrip from="pickup_lane2" to="-721302669#2" fromTaz="pasing_p_pickup" toTaz="fh_education" arrivalPos="random" modes="taxi"/>
    </person>
    <person id="school1400" depart="23844.91" departPos="random">
        <personTrip from="pickup_lane2" to="504569020#1" fromTaz="pasing_p_pickup" toTaz="fh_education" arrivalPos="random" modes="taxi"/>
    </person>
    <person id="school1167" depart="23853.10" departPos="random">
        <personTrip from="E44" to="504569020#1" fromTaz="fh_living" toTaz="fh_education" arrivalPos="random" modes="taxi"/>
    </person>
    <person id="school1222" depart="23854.94" departPos="random">
        <personTrip from="-504565992#2" to="504569020#1" fromTaz="fh_living" toTaz="fh_education" arrivalPos="random" modes="taxi"/>
    </person>
    <person id="school1077" depart="23861.35" departPos="random">
        <personTrip from="-E45" to="504569020#1" fromTaz="fh_living" toTaz="fh_education" arrivalPos="random" modes="taxi"/>
    </person>
    <person id="school314" depart="23862.72" departPos="random">
        <personTrip from="-721302669#2" to="E58" fromTaz="fh_education" toTaz="fh_living" arrivalPos="random" modes="taxi"/>
    </person>
    <person id="school494" depart="23882.68" departPos="random">
        <personTrip from="504569020#1" to="-E59" fromTaz="fh_education" toTaz="fh_living" arrivalPos="random" modes="taxi"/>
    </person>
    <person id="school589" depart="23889.60" departPos="random">
        <personTrip from="-721302669#2" to="dropoff_lane2" fromTaz="fh_education" toTaz="pasing_p_dropoff" arrivalPos="random" modes="taxi"/>
    </person>
    <person id="school1275" depart="23890.24" departPos="random">
        <personTrip from="pickup_lane1" to="-772719711#0" fromTaz="pasing_p_pickup" toTaz="fh_education" arrivalPos="random" modes="taxi"/>
    </person>
    <person id="school77" depart="23891.59" departPos="random">
        <personTrip from="-772719711#0" to="504566812#0" fromTaz="fh_education" toTaz="fh_living" arrivalPos="random" modes="taxi"/>
    </person>
    <person id="school819" depart="23903.48" departPos="random">
        <personTrip from="E66" to="504569020#1" fromTaz="fh_living" toTaz="fh_education" arrivalPos="random" modes="taxi"/>
    </person>
    <person id="school744" depart="23928.68" departPos="random">
        <personTrip from="504565992#0" to="504569020#1" fromTaz="fh_living" toTaz="fh_education" arrivalPos="random" modes="taxi"/>
    </person>
    <person id="school631" depart="23930.66" departPos="random">
        <personTrip from="-772719711#0" to="dropoff_lane1" fromTaz="fh_education" toTaz="pasing_p_dropoff" arrivalPos="random" modes="taxi"/>
    </person>
    <person id="school1255" depart="23936.72" departPos="random">
        <personTrip from="-E45" to="-721302669#2" fromTaz="fh_living" toTaz="fh_education" arrivalPos="random" modes="taxi"/>
    </person>
    <person id="school525" depart="23941.66" departPos="random">
        <personTrip from="-772719711#0" to="-E72" fromTaz="fh_education" toTaz="fh_living" arrivalPos="random" modes="taxi"/>
    </person>
    <person id="school1423" depart="23947.05" departPos="random">
        <personTrip from="pickup_lane1" to="-721302669#2" fromTaz="pasing_p_pickup" toTaz="fh_education" arrivalPos="random" modes="taxi"/>
    </person>
    <person id="school645" depart="23959.93" departPos="random">
        <personTrip from="504569020#1" to="dropoff_lane2" fromTaz="fh_education" toTaz="pasing_p_dropoff" arrivalPos="random" modes="taxi"/>
    </person>
    <person id="school687" depart="23973.95" departPos="random">
        <personTrip from="-772719711#0" to="dropoff_lane1" fromTaz="fh_education" toTaz="pasing_p_dropoff" arrivalPos="random" modes="taxi"/>
    </person>
    <person id="school88" depart="23981.56" departPos="random">
        <personTrip from="-772719711#0" to="407568052#0" fromTaz="fh_education" toTaz="fh_living" arrivalPos="random" modes="taxi"/>
    </person>
    <person id="school994" depart="23981.62" departPos="random">
        <personTrip from="-504565993#1" to="-721302669#2" fromTaz="fh_living" toTaz="fh_education" arrivalPos="random" modes="taxi"/>
    </person>
    <person id="school53" depart="23987.91" departPos="random">
        <personTrip from="504569020#1" to="-E43" fromTaz="fh_education" toTaz="fh_living" arrivalPos="random" modes="taxi"/>
    </person>
    <person id="school968" depart="23989.95" departPos="random">
        <personTrip from="-E69" to="-721302669#2" fromTaz="fh_living" toTaz="fh_education" arrivalPos="random" modes="taxi"/>
    </person>
    <person id="school1047" depart="24000.65" departPos="random">
        <personTrip from="E44" to="-721302669#2" fromTaz="fh_living" toTaz="fh_education" arrivalPos="random" modes="taxi"/>
    </person>
    <person id="school1013" depart="24003.54" departPos="random">
        <personTrip from="-E69" to="-772719711#0" fromTaz="fh_living" toTaz="fh_education" arrivalPos="random" modes="taxi"/>
    </person>
    <person id="school157" depart="24004.53" departPos="random">
        <personTrip from="-772719711#0" to="E52" fromTaz="fh_education" toTaz="fh_living" arrivalPos="random" modes="taxi"/>
    </person>
    <person id="school1277" depart="24006.98" departPos="random">
        <personTrip from="pickup_lane2" to="-721302669#2" fromTaz="pasing_p_pickup" toTaz="fh_education" arrivalPos="random" modes="taxi"/>
    </person>
    <person id="school244" depart="24009.79" departPos="random">
        <personTrip from="504569020#1" to="504566810#0" fromTaz="fh_education" toTaz="fh_living" arrivalPos="random" modes="taxi"/>
    </person>
    <person id="school355" depart="24017.73" departPos="random">
        <personTrip from="-721302669#2" to="504565992#2" fromTaz="fh_education" toTaz="fh_living" arrivalPos="random" modes="taxi"/>
    </person>
    <person id="school1407" depart="24022.03" departPos="random">
        <personTrip from="pickup_lane1" to="504569020#1" fromTaz="pasing_p_pickup" toTaz="fh_education" arrivalPos="random" modes="taxi"/>
    </person>
    <person id="school654" depart="24029.06" departPos="random">
        <personTrip from="504569020#1" to="dropoff_lane2" fromTaz="fh_education" toTaz="pasing_p_dropoff" arrivalPos="random" modes="taxi"/>
    </person>
    <person id="school802" depart="24061.88" departPos="random">
        <personTrip from="-407581698#2" to="504569020#1" fromTaz="fh_living" toTaz="fh_education" arrivalPos="random" modes="taxi"/>
    </person>
    <person id="school1394" depart="24064.55" departPos="random">
        <personTrip from="pickup_lane2" to="-772719711#0" fromTaz="pasing_p_pickup" toTaz="fh_education" arrivalPos="random" modes="taxi"/>
    </person>
    <person id="school261" depart="24065.77" departPos="random">
        <personTrip from="504569020#1" to="E65" fromTaz="fh_education" toTaz="fh_living" arrivalPos="random" modes="taxi"/>
    </person>
    <person id="school957" depart="24073.69" departPos="random">
        <personTrip from="-504565992#1" to="-772719711#0" fromTaz="fh_living" toTaz="fh_education" arrivalPos="random" modes="taxi"/>
    </person>
    <person id="school13" depart="24074.42" departPos="random">
        <personTrip from="504569020#1" to="E58" fromTaz="fh_education" toTaz="fh_living" arrivalPos="random" modes="taxi"/>
    </person>
    <person id="school590" depart="24074.64" departPos="random">
        <personTrip from="-772719711#0" to="dropoff_lane1" fromTaz="fh_education" toTaz="pasing_p_dropoff" arrivalPos="random" modes="taxi"/>
    </person>
    <person id="school295" depart="24075.61" departPos="random">
        <personTrip from="504569020#1" to="-E14" fromTaz="fh_education" toTaz="fh_living" arrivalPos="random" modes="taxi"/>
    </person>
    <person id="school265" depart="24079.22" departPos="random">
        <personTrip from="-721302669#2" to="-E62" fromTaz="fh_education" toTaz="fh_living" arrivalPos="random" modes="taxi"/>
    </person>
    <person id="school490" depart="24079.58" departPos="random">
        <personTrip from="-721302669#2" to="-504565993#1" fromTaz="fh_education" toTaz="fh_living" arrivalPos="random" modes="taxi"/>
    </person>
    <person id="school1155" depart="24084.85" departPos="random">
        <personTrip from="-E60" to="504569020#1" fromTaz="fh_living" toTaz="fh_education" arrivalPos="random" modes="taxi"/>
    </person>
    <person id="school747" depart="24095.27" departPos="random">
        <personTrip from="E48" to="504569020#1" fromTaz="fh_living" toTaz="fh_education" arrivalPos="random" modes="taxi"/>
    </person>
    <person id="school1152" depart="24096.17" departPos="random">
        <personTrip from="-E69" to="-721302669#2" fromTaz="fh_living" toTaz="fh_education" arrivalPos="random" modes="taxi"/>
    </person>
    <person id="school891" depart="24105.33" departPos="random">
        <personTrip from="E72" to="-721302669#2" fromTaz="fh_living" toTaz="fh_education" arrivalPos="random" modes="taxi"/>
    </person>
    <person id="school776" depart="24115.73" departPos="random">
        <personTrip from="-407581698#1" to="-772719711#0" fromTaz="fh_living" toTaz="fh_education" arrivalPos="random" modes="taxi"/>
    </person>
    <person id="school918" depart="24125.55" departPos="random">
        <personTrip from="-E53" to="-721302669#2" fromTaz="fh_living" toTaz="fh_education" arrivalPos="random" modes="taxi"/>
    </person>
    <person id="school1239" depart="24132.45" departPos="random">
        <personTrip from="-504566812#1" to="-721302669#2" fromTaz="fh_living" toTaz="fh_education" arrivalPos="random" modes="taxi"/>
    </person>
    <person id="school154" depart="24141.96" departPos="random">
        <personTrip from="504569020#1" to="E49" fromTaz="fh_education" toTaz="fh_living" arrivalPos="random" modes="taxi"/>
    </person>
    <person id="school1148" depart="24149.68" departPos="random">
        <personTrip from="-504565992#3" to="504569020#1" fromTaz="fh_living" toTaz="fh_education" arrivalPos="random" modes="taxi"/>
    </person>
    <person id="school491" depart="24155.92" departPos="random">
        <personTrip from="-721302669#2" to="-E49" fromTaz="fh_education" toTaz="fh_living" arrivalPos="random" modes="taxi"/>
    </person>
    <person id="school370" depart="24161.23" departPos="random">
        <personTrip from="-721302669#2" to="-504565992#2" fromTaz="fh_education" toTaz="fh_living" arrivalPos="random" modes="taxi"/>
    </person>
    <person id="school633" depart="24166.72" departPos="random">
        <personTrip from="-772719711#0" to="dropoff_lane1" fromTaz="fh_education" toTaz="pasing_p_dropoff" arrivalPos="random" modes="taxi"/>
    </person>
    <person id="school337" depart="24180.76" departPos="random">
        <personTrip from="-772719711#0" to="E70" fromTaz="fh_education" toTaz="fh_living" arrivalPos="random" modes="taxi"/>
    </person>
    <person id="school1314" depart="24185.92" departPos="random">
        <personTrip from="pickup_lane1" to="-721302669#2" fromTaz="pasing_p_pickup" toTaz="fh_education" arrivalPos="random" modes="taxi"/>
    </person>
    <person id="school1168" depart="24186.61" departPos="random">
        <personTrip from="504566812#2" to="-772719711#0" fromTaz="fh_living" toTaz="fh_education" arrivalPos="random" modes="taxi"/>
    </person>
    <person id="school571" depart="24234.97" departPos="random">
        <personTrip from="-721302669#2" to="dropoff_lane2" fromTaz="fh_education" toTaz="pasing_p_dropoff" arrivalPos="random" modes="taxi"/>
    </person>
    <person id="school147" depart="24245.77" departPos="random">
        <personTrip from="-721302669#2" to="E45" fromTaz="fh_education" toTaz="fh_living" arrivalPos="random" modes="taxi"/>
    </person>
    <person id="school563" depart="24246.61" departPos="random">
        <personTrip from="-721302669#2" to="dropoff_lane1" fromTaz="fh_education" toTaz="pasing_p_dropoff" arrivalPos="random" modes="taxi"/>
    </person>
    <person id="school635" depart="24253.00" departPos="random">
        <personTrip from="504569020#1" to="dropoff_lane2" fromTaz="fh_education" toTaz="pasing_p_dropoff" arrivalPos="random" modes="taxi"/>
    </person>
    <person id="school866" depart="24265.44" departPos="random">
        <personTrip from="E66" to="-772719711#0" fromTaz="fh_living" toTaz="fh_education" arrivalPos="random" modes="taxi"/>
    </person>
    <person id="school14" depart="24269.60" departPos="random">
        <personTrip from="504569020#1" to="407581698#1" fromTaz="fh_education" toTaz="fh_living" arrivalPos="random" modes="taxi"/>
    </person>
    <person id="school1316" depart="24273.70" departPos="random">
        <personTrip from="pickup_lane1" to="504569020#1" fromTaz="pasing_p_pickup" toTaz="fh_education" arrivalPos="random" modes="taxi"/>
    </person>
    <person id="school616" depart="24282.65" departPos="random">
        <personTrip from="-772719711#0" to="dropoff_lane2" fromTaz="fh_education" toTaz="pasing_p_dropoff" arrivalPos="random" modes="taxi"/>
    </person>
    <person id="school1128" depart="24305.43" departPos="random">
        <personTrip from="E50" to="504569020#1" fromTaz="fh_living" toTaz="fh_education" arrivalPos="random" modes="taxi"/>
    </person>
    <person id="school1402" depart="24320.97" departPos="random">
        <personTrip from="pickup_lane1" to="-721302669#2" fromTaz="pasing_p_pickup" toTaz="fh_education" arrivalPos="random" modes="taxi"/>
    </person>
    <person id="school119" depart="24323.23" departPos="random">
        <personTrip from="-721302669#2" to="E64" fromTaz="fh_education" toTaz="fh_living" arrivalPos="random" modes="taxi"/>
    </person>
    <person id="school1099" depart="24325.54" departPos="random">
        <personTrip from="-407568052#1" to="-772719711#0" fromTaz="fh_living" toTaz="fh_education" arrivalPos="random" modes="taxi"/>
    </person>
    <person id="school441" depart="24328.89" departPos="random">
        <personTrip from="-772719711#0" to="-E69" fromTaz="fh_education" toTaz="fh_living" arrivalPos="random" modes="taxi"/>
    </person>
    <person id="school876" depart="24332.17" departPos="random">
        <personTrip from="E44" to="-772719711#0" fromTaz="fh_living" toTaz="fh_education" arrivalPos="random" modes="taxi"/>
    </person>
    <person id="school1061" depart="24338.60" departPos="random">
        <personTrip from="E72" to="504569020#1" fromTaz="fh_living" toTaz="fh_education" arrivalPos="random" modes="taxi"/>
    </person>
    <person id="school1375" depart="24339.32" departPos="random">
        <personTrip from="pickup_lane2" to="-721302669#2" fromTaz="pasing_p_pickup" toTaz="fh_education" arrivalPos="random" modes="taxi"/>
    </person>
    <person id="school946" depart="24346.44" departPos="random">
        <personTrip from="E50" to="-772719711#0" fromTaz="fh_living" toTaz="fh_education" arrivalPos="random" modes="taxi"/>
    </person>
    <person id="school478" depart="24352.12" departPos="random">
        <personTrip from="-772719711#0" to="E47" fromTaz="fh_education" toTaz="fh_living" arrivalPos="random" modes="taxi"/>
    </person>
    <person id="school913" depart="24356.32" departPos="random">
        <personTrip from="-E66" to="-721302669#2" fromTaz="fh_living" toTaz="fh_education" arrivalPos="random" modes="taxi"/>
    </person>
    <person id="school597" depart="24373.43" departPos="random">
        <personTrip from="-721302669#2" to="dropoff_lane2" fromTaz="fh_education" toTaz="pasing_p_dropoff" arrivalPos="random" modes="taxi"/>
    </person>
    <person id="school27" depart="24384.39" departPos="random">
        <personTrip from="504569020#1" to="-E56" fromTaz="fh_education" toTaz="fh_living" arrivalPos="random" modes="taxi"/>
    </person>
    <person id="school806" depart="24398.69" departPos="random">
        <personTrip from="E66" to="-721302669#2" fromTaz="fh_living" toTaz="fh_education" arrivalPos="random" modes="taxi"/>
    </person>
    <person id="school1310" depart="24404.91" departPos="random">
        <personTrip from="pickup_lane1" to="-721302669#2" fromTaz="pasing_p_pickup" toTaz="fh_education" arrivalPos="random" modes="taxi"/>
    </person>
    <person id="school217" depart="24408.03" departPos="random">
        <personTrip from="504569020#1" to="E64" fromTaz="fh_education" toTaz="fh_living" arrivalPos="random" modes="taxi"/>
    </person>
    <person id="school878" depart="24413.43" departPos="random">
        <personTrip from="-E72" to="504569020#1" fromTaz="fh_living" toTaz="fh_education" arrivalPos="random" modes="taxi"/>
    </person>
    <person id="school338" depart="24432.88" departPos="random">
        <personTrip from="-772719711#0" to="-407568052#2" fromTaz="fh_education" toTaz="fh_living" arrivalPos="random" modes="taxi"/>
    </person>
    <person id="school458" depart="24438.14" departPos="random">
        <personTrip from="-772719711#0" to="504566812#2" fromTaz="fh_education" toTaz="fh_living" arrivalPos="random" modes="taxi"/>
    </person>
    <person id="school168" depart="24449.38" departPos="random">
        <personTrip from="-721302669#2" to="-E45" fromTaz="fh_education" toTaz="fh_living" arrivalPos="random" modes="taxi"/>
    </person>
    <person id="school857" depart="24452.45" departPos="random">
        <personTrip from="-E53" to="-772719711#0" fromTaz="fh_living" toTaz="fh_education" arrivalPos="random" modes="taxi"/>
    </person>