<?xml version="1.0" encoding="UTF-8"?>

<!-- generated on 2022-11-11 11:00:11 by Eclipse SUMO od2trips Version 1.14.1
<configuration xmlns:xsi="http://www.w3.org/2001/XMLSchema-instance" xsi:noNamespaceSchemaLocation="http://sumo.dlr.de/xsd/od2tripsConfiguration.xsd">

    <input>
        <taz-files value="test.taz.xml"/>
        <tazrelation-files value="freiham_traffic.xsd"/>
    </input>

    <output>
        <output-file value="osm-test-veh.rou.xml"/>
    </output>

    <processing>
        <prefix value="veh"/>
        <timeline value="0:0.03,18000:0.11,28800:0.13,36000:0.16,46800:0.2,57600:0.25,68400:0.1,79200:0.03,86400:0.00"/>
    </processing>

</configuration>
-->

<routes xmlns:xsi="http://www.w3.org/2001/XMLSchema-instance" xsi:noNamespaceSchemaLocation="http://sumo.dlr.de/xsd/routes_file.xsd">
    <trip id="veh233" depart="2.83" from="-341648786#0" to="-504565992#4" fromTaz="bodensee_east_in" toTaz="fh_4" departLane="free" departSpeed="max"/>
    <trip id="veh551" depart="33.54" from="-E64" to="-341648794#0" fromTaz="fh_3" toTaz="bodensee_west_out" departLane="free" departSpeed="max"/>
    <trip id="veh155" depart="88.60" from="-3636462" to="E65" fromTaz="autobahn_in" toTaz="fh_3" departLane="free" departSpeed="max"/>
    <trip id="veh318" depart="109.27" from="513652433#2" to="E29.86" fromTaz="fh_1" toTaz="aubinger_allee_out" departLane="free" departSpeed="max"/>
    <trip id="veh303" depart="130.11" from="341648794#0" to="-407568052#1" fromTaz="bodensee_west_in" toTaz="fh_4" departLane="free" departSpeed="max"/>
    <trip id="veh111" depart="179.52" from="-3636462" to="721302669#2" fromTaz="autobahn_in" toTaz="fh_1" departLane="free" departSpeed="max"/>
    <trip id="veh195" depart="210.76" from="-3636462" to="-504566812#2" fromTaz="autobahn_in" toTaz="fh_4" departLane="free" departSpeed="max"/>
    <trip id="veh177" depart="215.86" from="-3636462" to="407568052#2" fromTaz="autobahn_in" toTaz="fh_4" departLane="free" departSpeed="max"/>
    <trip id="veh488" depart="312.99" from="E69" to="814323848" fromTaz="fh_2" toTaz="bodensee_east_out" departLane="free" departSpeed="max"/>
    <trip id="veh78" depart="322.82" from="-3636462" to="-772719711#0" fromTaz="autobahn_in" toTaz="fh_1" departLane="free" departSpeed="max"/>
    <trip id="veh377" depart="339.76" from="513652433#2" to="3636462" fromTaz="fh_1" toTaz="autobahn_out" departLane="free" departSpeed="max"/>
    <trip id="veh475" depart="340.80" from="-E69" to="3636462" fromTaz="fh_2" toTaz="autobahn_out" departLane="free" departSpeed="max"/>
    <trip id="veh459" depart="342.66" from="513652433#1" to="-153575259#7" fromTaz="fh_1" toTaz="wiesenfelser_out" departLane="free" departSpeed="max"/>
    <trip id="veh18" depart="345.66" from="-E29" to="721302669#2" fromTaz="aubinger_allee_in" toTaz="fh_1" departLane="free" departSpeed="max"/>
    <trip id="veh268" depart="350.79" from="-341648793#0" to="-772719711#0" fromTaz="bodensee_west_in" toTaz="fh_1" departLane="free" departSpeed="max"/>
    <trip id="veh17" depart="352.32" from="-E29" to="721302669#0" fromTaz="aubinger_allee_in" toTaz="fh_1" departLane="free" departSpeed="max"/>
    <trip id="veh394" depart="355.36" from="721302669#2" to="3636462" fromTaz="fh_1" toTaz="autobahn_out" departLane="free" departSpeed="max"/>
    <trip id="veh61" depart="417.29" from="-3636462" to="721304712#1" fromTaz="autobahn_in" toTaz="fh_1" departLane="free" departSpeed="max"/>
    <trip id="veh363" depart="425.10" from="-513652433#2" to="3636462" fromTaz="fh_1" toTaz="autobahn_out" departLane="free" departSpeed="max"/>
    <trip id="veh170" depart="429.67" from="-3636462" to="-504566812#0" fromTaz="autobahn_in" toTaz="fh_4" departLane="free" departSpeed="max"/>
    <trip id="veh578" depart="530.66" from="-407568052#1" to="3636462" fromTaz="fh_4" toTaz="autobahn_out" departLane="free" departSpeed="max"/>
    <trip id="veh636" depart="573.95" from="-466127484#2" to="-504565992#2" fromTaz="prezfelder_in" toTaz="fh_4" departLane="free" departSpeed="max"/>
    <trip id="veh327" depart="617.73" from="-772719711#0" to="E29.86" fromTaz="fh_1" toTaz="aubinger_allee_out" departLane="free" departSpeed="max"/>
    <trip id="veh443" depart="637.02" from="-721302669#0" to="4389175#1" fromTaz="fh_1" toTaz="bodensee_west_out" departLane="free" departSpeed="max"/>
    <trip id="veh539" depart="674.64" from="-E62" to="814323848" fromTaz="fh_3" toTaz="bodensee_east_out" departLane="free" departSpeed="max"/>
    <trip id="veh189" depart="693.28" from="-3636462" to="-407581698#2" fromTaz="autobahn_in" toTaz="fh_4" departLane="free" departSpeed="max"/>
    <trip id="veh141" depart="741.96" from="-3636462" to="-E50" fromTaz="autobahn_in" toTaz="fh_3" departLane="free" departSpeed="max"/>
    <trip id="veh628" depart="757.19" from="504565992#3" to="-153575259#7" fromTaz="fh_4" toTaz="wiesenfelser_out" departLane="free" departSpeed="max"/>
    <trip id="veh230" depart="777.22" from="-341648786#0" to="-504565992#0" fromTaz="bodensee_east_in" toTaz="fh_4" departLane="free" departSpeed="max"/>
    <trip id="veh455" depart="800.84" from="-721304712#1" to="-153575259#7" fromTaz="fh_1" toTaz="wiesenfelser_out" departLane="free" departSpeed="max"/>
    <trip id="veh582" depart="853.00" from="-504566810#0" to="3636462" fromTaz="fh_4" toTaz="autobahn_out" departLane="free" departSpeed="max"/>
    <trip id="veh496" depart="863.89" from="-E67" to="4389175#1" fromTaz="fh_2" toTaz="bodensee_west_out" departLane="free" departSpeed="max"/>
    <trip id="veh209" depart="870.35" from="56222688#1" to="513652433#2" fromTaz="bodensee_east_in" toTaz="fh_1" departLane="free" departSpeed="max"/>
    <trip id="veh138" depart="873.90" from="-3636462" to="-E51" fromTaz="autobahn_in" toTaz="fh_3" departLane="free" departSpeed="max"/>
    <trip id="veh639" depart="971.72" from="153575259#7" to="-341648793#0" fromTaz="wiesenfelser_in" toTaz="bodensee_east_out" departLane="free" departSpeed="max"/>
    <trip id="veh546" depart="973.43" from="-E43" to="4389175#1" fromTaz="fh_3" toTaz="bodensee_west_out" departLane="free" departSpeed="max"/>
    <trip id="veh24" depart="984.39" from="-E29" to="-E70" fromTaz="aubinger_allee_in" toTaz="fh_2" departLane="free" departSpeed="max"/>
    <trip id="veh552" depart="1000.58" from="E40" to="4389175#1" fromTaz="fh_3" toTaz="bodensee_west_out" departLane="free" departSpeed="max"/>
    <trip id="veh224" depart="1007.16" from="-341648786#0" to="E51" fromTaz="bodensee_east_in" toTaz="fh_3" departLane="free" departSpeed="max"/>
    <trip id="veh593" depart="1095.12" from="-407581698#2" to="3636462" fromTaz="fh_4" toTaz="autobahn_out" departLane="free" departSpeed="max"/>
    <trip id="veh118" depart="1103.27" from="-3636462" to="513652433#1" fromTaz="autobahn_in" toTaz="fh_1" departLane="free" departSpeed="max"/>
    <trip id="veh351" depart="1114.89" from="-513652433#2" to="3636462" fromTaz="fh_1" toTaz="autobahn_out" departLane="free" departSpeed="max"/>
    <trip id="veh275" depart="1179.20" from="270678964#1" to="-513652433#1" fromTaz="bodensee_west_in" toTaz="fh_1" departLane="free" departSpeed="max"/>
    <trip id="veh679" depart="1216.18" from="153575259#7" to="-407568052#0" fromTaz="wiesenfelser_in" toTaz="fh_4" departLane="free" departSpeed="max"/>
    <trip id="veh63" depart="1229.13" from="-3636462" to="-721304712#1" fromTaz="autobahn_in" toTaz="fh_1" departLane="free" departSpeed="max"/>
    <trip id="veh56" depart="1256.12" from="-3636462" to="407578432#1" fromTaz="autobahn_in" toTaz="fh_1" departLane="free" departSpeed="max"/>
    <trip id="veh487" depart="1267.39" from="-E69" to="-341648793#0" fromTaz="fh_2" toTaz="bodensee_east_out" departLane="free" departSpeed="max"/>
    <trip id="veh200" depart="1298.74" from="-341648786#0" to="-513652433#2" fromTaz="bodensee_east_in" toTaz="fh_1" departLane="free" departSpeed="max"/>
    <trip id="veh114" depart="1359.91" from="-3636462" to="-721304712#1" fromTaz="autobahn_in" toTaz="fh_1" departLane="free" departSpeed="max"/>
    <trip id="veh126" depart="1405.95" from="-3636462" to="-E66" fromTaz="autobahn_in" toTaz="fh_2" departLane="free" departSpeed="max"/>
    <trip id="veh378" depart="1501.16" from="513652433#2" to="3636462" fromTaz="fh_1" toTaz="autobahn_out" departLane="free" departSpeed="max"/>
    <trip id="veh228" depart="1510.81" from="-341648786#0" to="E47" fromTaz="bodensee_east_in" toTaz="fh_3" departLane="free" departSpeed="max"/>
    <trip id="veh520" depart="1518.78" from="-E45" to="3636462" fromTaz="fh_3" toTaz="autobahn_out" departLane="free" departSpeed="max"/>
    <trip id="veh451" depart="1551.54" from="513652433#1" to="-341648794#0" fromTaz="fh_1" toTaz="bodensee_west_out" departLane="free" departSpeed="max"/>
    <trip id="veh308" depart="1563.96" from="-341648793#0" to="-153575259#7" fromTaz="bodensee_west_in" toTaz="wiesenfelser_out" departLane="free" departSpeed="max"/>
    <trip id="veh344" depart="1614.82" from="-721304712#0" to="3636462" fromTaz="fh_1" toTaz="autobahn_out" departLane="free" departSpeed="max"/>
    <trip id="veh171" depart="1652.57" from="-3636462" to="407581698#2" fromTaz="autobahn_in" toTaz="fh_4" departLane="free" departSpeed="max"/>
    <trip id="veh432" depart="1682.50" from="-721302669#0" to="4389175#1" fromTaz="fh_1" toTaz="bodensee_west_out" departLane="free" departSpeed="max"/>
    <trip id="veh191" depart="1690.02" from="-3636462" to="407581698#2" fromTaz="autobahn_in" toTaz="fh_4" departLane="free" departSpeed="max"/>
    <trip id="veh577" depart="1693.20" from="-504565992#1" to="3636462" fromTaz="fh_4" toTaz="autobahn_out" departLane="free" departSpeed="max"/>
    <trip id="veh626" depart="1695.71" from="-504565992#2" to="-153575259#7" fromTaz="fh_4" toTaz="wiesenfelser_out" departLane="free" departSpeed="max"/>
    <trip id="veh246" depart="1734.61" from="-341648786#0" to="-153575259#7" fromTaz="bodensee_east_in" toTaz="wiesenfelser_out" departLane="free" departSpeed="max"/>
    <trip id="veh365" depart="1735.93" from="513652433#1" to="3636462" fromTaz="fh_1" toTaz="autobahn_out" departLane="free" departSpeed="max"/>
    <trip id="veh23" depart="1752.65" from="-E29" to="-772719711#0" fromTaz="aubinger_allee_in" toTaz="fh_1" departLane="free" departSpeed="max"/>
    <trip id="veh282" depart="1782.15" from="-341648793#0" to="-E53" fromTaz="bodensee_west_in" toTaz="fh_3" departLane="free" departSpeed="max"/>
    <trip id="veh544" depart="1785.03" from="E42" to="-341648794#0" fromTaz="fh_3" toTaz="bodensee_west_out" departLane="free" departSpeed="max"/>
    <trip id="veh165" depart="1810.52" from="-3636462" to="-E44" fromTaz="autobahn_in" toTaz="fh_3" departLane="free" departSpeed="max"/>
    <trip id="veh301" depart="1816.96" from="-341648793#0" to="-407581698#2" fromTaz="bodensee_west_in" toTaz="fh_4" departLane="free" departSpeed="max"/>
    <trip id="veh147" depart="1828.28" from="-3636462" to="-E52" fromTaz="autobahn_in" toTaz="fh_3" departLane="free" departSpeed="max"/>
    <trip id="veh99" depart="1849.67" from="-3636462" to="-721302669#0" fromTaz="autobahn_in" toTaz="fh_1" departLane="free" departSpeed="max"/>
    <trip id="veh460" depart="1873.22" from="-721302669#0" to="-153575259#7" fromTaz="fh_1" toTaz="wiesenfelser_out" departLane="free" departSpeed="max"/>
    <trip id="veh545" depart="1934.93" from="-E61" to="-341648794#0" fromTaz="fh_3" toTaz="bodensee_west_out" departLane="free" departSpeed="max"/>
    <trip id="veh376" depart="1960.62" from="721302669#2" to="3636462" fromTaz="fh_1" toTaz="autobahn_out" departLane="free" departSpeed="max"/>
    <trip id="veh45" depart="1972.95" from="-E29" to="407568052#0" fromTaz="aubinger_allee_in" toTaz="fh_4" departLane="free" departSpeed="max"/>
    <trip id="veh289" depart="1995.57" from="270678964#1" to="E65" fromTaz="bodensee_west_in" toTaz="fh_3" departLane="free" departSpeed="max"/>
    <trip id="veh468" depart="2048.98" from="-E69" to="E29.86" fromTaz="fh_2" toTaz="aubinger_allee_out" departLane="free" departSpeed="max"/>
    <trip id="veh290" depart="2079.27" from="-341648793#0" to="-E41" fromTaz="bodensee_west_in" toTaz="fh_3" departLane="free" departSpeed="max"/>
    <trip id="veh59" depart="2115.84" from="-3636462" to="-721302669#2" fromTaz="autobahn_in" toTaz="fh_1" departLane="free" departSpeed="max"/>
    <trip id="veh508" depart="2194.08" from="-E50" to="E29.86" fromTaz="fh_3" toTaz="aubinger_allee_out" departLane="free" departSpeed="max"/>
    <trip id="veh306" depart="2221.78" from="-341648793#0" to="-153575259#7" fromTaz="bodensee_west_in" toTaz="wiesenfelser_out" departLane="free" departSpeed="max"/>
    <trip id="veh47" depart="2252.80" from="-E29" to="-504566810#0" fromTaz="aubinger_allee_in" toTaz="fh_4" departLane="free" departSpeed="max"/>
    <trip id="veh29" depart="2279.74" from="-E29" to="-E69" fromTaz="aubinger_allee_in" toTaz="fh_2" departLane="free" departSpeed="max"/>
    <trip id="veh300" depart="2285.33" from="-341648793#0" to="504566810#0" fromTaz="bodensee_west_in" toTaz="fh_4" departLane="free" departSpeed="max"/>
    <trip id="veh658" depart="2303.97" from="153575259#7" to="4389175#1" fromTaz="wiesenfelser_in" toTaz="bodensee_west_out" departLane="free" departSpeed="max"/>
    <trip id="veh613" depart="2332.26" from="-504565992#1" to="4389175#1" fromTaz="fh_4" toTaz="bodensee_west_out" departLane="free" departSpeed="max"/>
    <trip id="veh364" depart="2344.55" from="-772719711#0" to="3636462" fromTaz="fh_1" toTaz="autobahn_out" departLane="free" departSpeed="max"/>
    <trip id="veh74" depart="2401.73" from="-3636462" to="-721304712#1" fromTaz="autobahn_in" toTaz="fh_1" departLane="free" departSpeed="max"/>
    <trip id="veh203" depart="2435.32" from="56222688#1" to="513652433#1" fromTaz="bodensee_east_in" toTaz="fh_1" departLane="free" departSpeed="max"/>
    <trip id="veh467" depart="2476.37" from="E67" to="E29.86" fromTaz="fh_2" toTaz="aubinger_allee_out" departLane="free" departSpeed="max"/>
    <trip id="veh4" depart="2507.60" from="-E29" to="-513652433#1" fromTaz="aubinger_allee_in" toTaz="fh_1" departLane="free" departSpeed="max"/>
    <trip id="veh81" depart="2546.34" from="-3636462" to="407578432#1" fromTaz="autobahn_in" toTaz="fh_1" departLane="free" departSpeed="max"/>
    <trip id="veh226" depart="2641.17" from="56222688#1" to="E50" fromTaz="bodensee_east_in" toTaz="fh_3" departLane="free" departSpeed="max"/>
    <trip id="veh288" depart="2643.76" from="270678964#1" to="-E55" fromTaz="bodensee_west_in" toTaz="fh_3" departLane="free" departSpeed="max"/>
    <trip id="veh425" depart="2717.25" from="721302669#0" to="-341648793#0" fromTaz="fh_1" toTaz="bodensee_east_out" departLane="free" departSpeed="max"/>
    <trip id="veh389" depart="2791.60" from="721302669#0" to="3636462" fromTaz="fh_1" toTaz="autobahn_out" departLane="free" departSpeed="max"/>
    <trip id="veh436" depart="3048.32" from="-513652433#2" to="4389175#1" fromTaz="fh_1" toTaz="bodensee_west_out" departLane="free" departSpeed="max"/>
    <trip id="veh122" depart="3054.41" from="-3636462" to="E67" fromTaz="autobahn_in" toTaz="fh_2" departLane="free" departSpeed="max"/>
    <trip id="veh240" depart="3090.36" from="-341648786#0" to="-153575259#7" fromTaz="bodensee_east_in" toTaz="wiesenfelser_out" departLane="free" departSpeed="max"/>
    <trip id="veh162" depart="3126.75" from="-3636462" to="E47" fromTaz="autobahn_in" toTaz="fh_3" departLane="free" departSpeed="max"/>
    <trip id="veh428" depart="3197.17" from="-721304712#0" to="4389175#1" fromTaz="fh_1" toTaz="bodensee_west_out" departLane="free" departSpeed="max"/>
    <trip id="veh266" depart="3207.97" from="341648794#0" to="513652433#1" fromTaz="bodensee_west_in" toTaz="fh_1" departLane="free" departSpeed="max"/>
    <trip id="veh438" depart="3223.90" from="721302669#2" to="4389175#1" fromTaz="fh_1" toTaz="bodensee_west_out" departLane="free" departSpeed="max"/>
    <trip id="veh454" depart="3232.74" from="721304712#0" to="466127484#2" fromTaz="fh_1" toTaz="prezfelder_out" departLane="free" departSpeed="max"/>
    <trip id="veh131" depart="3272.04" from="-3636462" to="-E67" fromTaz="autobahn_in" toTaz="fh_2" departLane="free" departSpeed="max"/>
    <trip id="veh316" depart="3296.93" from="270678964#1" to="-153575259#7" fromTaz="bodensee_west_in" toTaz="wiesenfelser_out" departLane="free" departSpeed="max"/>
    <trip id="veh398" depart="3299.34" from="-721302669#0" to="3636462" fromTaz="fh_1" toTaz="autobahn_out" departLane="free" departSpeed="max"/>
    <trip id="veh62" depart="3302.66" from="-3636462" to="407578432#1" fromTaz="autobahn_in" toTaz="fh_1" departLane="free" departSpeed="max"/>
    <trip id="veh599" depart="3338.49" from="407568052#2" to="3636462" fromTaz="fh_4" toTaz="autobahn_out" departLane="free" departSpeed="max"/>
    <trip id="veh77" depart="3365.36" from="-3636462" to="721304712#1" fromTaz="autobahn_in" toTaz="fh_1" departLane="free" departSpeed="max"/>
    <trip id="veh36" depart="3380.65" from="-E29" to="E53" fromTaz="aubinger_allee_in" toTaz="fh_3" departLane="free" departSpeed="max"/>
    <trip id="veh343" depart="3393.46" from="-721304712#1" to="3636462" fromTaz="fh_1" toTaz="autobahn_out" departLane="free" departSpeed="max"/>
    <trip id="veh79" depart="3435.74" from="-3636462" to="407578432#1" fromTaz="autobahn_in" toTaz="fh_1" departLane="free" departSpeed="max"/>
    <trip id="veh32" depart="3463.84" from="-E29" to="-E51" fromTaz="aubinger_allee_in" toTaz="fh_3" departLane="free" departSpeed="max"/>
    <trip id="veh273" depart="3534.42" from="-341648793#0" to="-513652433#1" fromTaz="bodensee_west_in" toTaz="fh_1" departLane="free" departSpeed="max"/>
    <trip id="veh227" depart="3579.37" from="-341648786#0" to="-E47" fromTaz="bodensee_east_in" toTaz="fh_3" departLane="free" departSpeed="max"/>
    <trip id="veh559" depart="3592.08" from="407568052#1" to="E29.86" fromTaz="fh_4" toTaz="aubinger_allee_out" departLane="free" departSpeed="max"/>
    <trip id="veh96" depart="3594.65" from="-3636462" to="407578432#1" fromTaz="autobahn_in" toTaz="fh_1" departLane="free" departSpeed="max"/>
    <trip id="veh124" depart="3621.41" from="-3636462" to="E72" fromTaz="autobahn_in" toTaz="fh_2" departLane="free" departSpeed="max"/>
    <trip id="veh317" depart="3628.03" from="270678964#1" to="-153575259#7" fromTaz="bodensee_west_in" toTaz="wiesenfelser_out" departLane="free" departSpeed="max"/>
    <trip id="veh526" depart="3634.76" from="E56" to="3636462" fromTaz="fh_3" toTaz="autobahn_out" departLane="free" departSpeed="max"/>
    <trip id="veh205" depart="3657.85" from="56222688#1" to="-772719711#0" fromTaz="bodensee_east_in" toTaz="fh_1" departLane="free" departSpeed="max"/>
    <trip id="veh607" depart="3743.38" from="407581698#1" to="814323848" fromTaz="fh_4" toTaz="bodensee_east_out" departLane="free" departSpeed="max"/>
    <trip id="veh392" depart="3768.60" from="721304712#0" to="3636462" fromTaz="fh_1" toTaz="autobahn_out" departLane="free" departSpeed="max"/>
    <trip id="veh125" depart="3785.92" from="-3636462" to="-E66" fromTaz="autobahn_in" toTaz="fh_2" departLane="free" departSpeed="max"/>
    <trip id="veh532" depart="3799.45" from="E49" to="3636462" fromTaz="fh_3" toTaz="autobahn_out" departLane="free" departSpeed="max"/>
    <trip id="veh644" depart="3833.18" from="153575259#7" to="-341648793#0" fromTaz="wiesenfelser_in" toTaz="bodensee_east_out" departLane="free" departSpeed="max"/>
    <trip id="veh286" depart="3840.30" from="270678964#1" to="-E64" fromTaz="bodensee_west_in" toTaz="fh_3" departLane="free" departSpeed="max"/>
    <trip id="veh70" depart="3881.32" from="-3636462" to="721304712#0" fromTaz="autobahn_in" toTaz="fh_1" departLane="free" departSpeed="max"/>
    <trip id="veh335" depart="3923.94" from="513652433#2" to="E29.86" fromTaz="fh_1" toTaz="aubinger_allee_out" departLane="free" departSpeed="max"/>
    <trip id="veh257" depart="3938.62" from="270678964#1" to="-721304712#0" fromTaz="bodensee_west_in" toTaz="fh_1" departLane="free" departSpeed="max"/>
    <trip id="veh437" depart="3951.95" from="-721304712#0" to="4389175#1" fromTaz="fh_1" toTaz="bodensee_west_out" departLane="free" departSpeed="max"/>
    <trip id="veh518" depart="3985.41" from="E46" to="3636462" fromTaz="fh_3" toTaz="autobahn_out" departLane="free" departSpeed="max"/>
    <trip id="veh386" depart="4049.12" from="-721304712#1" to="3636462" fromTaz="fh_1" toTaz="autobahn_out" departLane="free" departSpeed="max"/>
    <trip id="veh324" depart="4073.32" from="-513652433#1" to="E29.86" fromTaz="fh_1" toTaz="aubinger_allee_out" departLane="free" departSpeed="max"/>
    <trip id="veh625" depart="4082.81" from="504565992#0" to="466127484#2" fromTaz="fh_4" toTaz="prezfelder_out" departLane="free" departSpeed="max"/>
    <trip id="veh293" depart="4130.78" from="-341648793#0" to="-407568052#0" fromTaz="bodensee_west_in" toTaz="fh_4" departLane="free" departSpeed="max"/>
    <trip id="veh248" depart="4158.38" from="-341648786#0" to="-153575259#7" fromTaz="bodensee_east_in" toTaz="wiesenfelser_out" departLane="free" departSpeed="max"/>
    <trip id="veh264" depart="4180.13" from="341648794#0" to="513652433#2" fromTaz="bodensee_west_in" toTaz="fh_1" departLane="free" departSpeed="max"/>
    <trip id="veh193" depart="4186.06" from="-3636462" to="-504565993#1" fromTaz="autobahn_in" toTaz="fh_4" departLane="free" departSpeed="max"/>
    <trip id="veh19" depart="4188.75" from="-E29" to="-772719711#0" fromTaz="aubinger_allee_in" toTaz="fh_1" departLane="free" departSpeed="max"/>
    <trip id="veh135" depart="4207.36" from="-3636462" to="E72" fromTaz="autobahn_in" toTaz="fh_2" departLane="free" departSpeed="max"/>
    <trip id="veh94" depart="4217.02" from="-3636462" to="721302669#2" fromTaz="autobahn_in" toTaz="fh_1" departLane="free" departSpeed="max"/>
    <trip id="veh623" depart="4257.62" from="-407581698#2" to="-341648794#0" fromTaz="fh_4" toTaz="bodensee_west_out" departLane="free" departSpeed="max"/>
    <trip id="veh345" depart="4272.19" from="721304712#0" to="3636462" fromTaz="fh_1" toTaz="autobahn_out" departLane="free" departSpeed="max"/>
    <trip id="veh75" depart="4294.93" from="-3636462" to="-513652433#2" fromTaz="autobahn_in" toTaz="fh_1" departLane="free" departSpeed="max"/>
    <trip id="veh305" depart="4302.24" from="341648794#0" to="-153575259#7" fromTaz="bodensee_west_in" toTaz="wiesenfelser_out" departLane="free" departSpeed="max"/>
    <trip id="veh528" depart="4340.16" from="E59" to="3636462" fromTaz="fh_3" toTaz="autobahn_out" departLane="free" departSpeed="max"/>
    <trip id="veh462" depart="4347.93" from="E72" to="E29.86" fromTaz="fh_2" toTaz="aubinger_allee_out" departLane="free" departSpeed="max"/>
    <trip id="veh429" depart="4398.61" from="721302669#0" to="4389175#1" fromTaz="fh_1" toTaz="bodensee_west_out" departLane="free" departSpeed="max"/>
    <trip id="veh480" depart="4416.79" from="-E67" to="3636462" fromTaz="fh_2" toTaz="autobahn_out" departLane="free" departSpeed="max"/>
    <trip id="veh659" depart="4501.05" from="153575259#7" to="4389175#1" fromTaz="wiesenfelser_in" toTaz="bodensee_west_out" departLane="free" departSpeed="max"/>
    <trip id="veh214" depart="4507.28" from="56222688#1" to="-772719711#0" fromTaz="bodensee_east_in" toTaz="fh_1" departLane="free" departSpeed="max"/>
    <trip id="veh57" depart="4520.00" from="-3636462" to="-513652433#2" fromTaz="autobahn_in" toTaz="fh_1" departLane="free" departSpeed="max"/>
    <trip id="veh329" depart="4525.54" from="-721302669#0" to="E29.86" fromTaz="fh_1" toTaz="aubinger_allee_out" departLane="free" departSpeed="max"/>
    <trip id="veh483" depart="4529.34" from="E67" to="3636462" fromTaz="fh_2" toTaz="autobahn_out" departLane="free" departSpeed="max"/>
    <trip id="veh657" depart="4575.77" from="153575259#7" to="4389175#1" fromTaz="wiesenfelser_in" toTaz="bodensee_west_out" departLane="free" departSpeed="max"/>
    <trip id="veh65" depart="4577.06" from="-3636462" to="513652433#2" fromTaz="autobahn_in" toTaz="fh_1" departLane="free" departSpeed="max"/>
    <trip id="veh385" depart="4596.73" from="513652433#1" to="3636462" fromTaz="fh_1" toTaz="autobahn_out" departLane="free" departSpeed="max"/>
    <trip id="veh413" depart="4601.52" from="-772719711#0" to="814323848" fromTaz="fh_1" toTaz="bodensee_east_out" departLane="free" departSpeed="max"/>
    <trip id="veh531" depart="4637.12" from="E53" to="3636462" fromTaz="fh_3" toTaz="autobahn_out" departLane="free" departSpeed="max"/>
    <trip id="veh478" depart="4670.05" from="-E72" to="3636462" fromTaz="fh_2" toTaz="autobahn_out" departLane="free" departSpeed="max"/>
    <trip id="veh648" depart="4685.94" from="153575259#7" to="-341648793#0" fromTaz="wiesenfelser_in" toTaz="bodensee_east_out" departLane="free" departSpeed="max"/>
    <trip id="veh355" depart="4719.38" from="-513652433#1" to="3636462" fromTaz="fh_1" toTaz="autobahn_out" departLane="free" departSpeed="max"/>
    <trip id="veh672" depart="4726.58" from="153575259#7" to="-772719711#0" fromTaz="wiesenfelser_in" toTaz="fh_1" departLane="free" departSpeed="max"/>
    <trip id="veh331" depart="4740.74" from="-721302669#2" to="E29.86" fromTaz="fh_1" toTaz="aubinger_allee_out" departLane="free" departSpeed="max"/>
    <trip id="veh424" depart="4749.19" from="-513652433#1" to="814323848" fromTaz="fh_1" toTaz="bodensee_east_out" departLane="free" departSpeed="max"/>
    <trip id="veh87" depart="4753.28" from="-3636462" to="-721304712#1" fromTaz="autobahn_in" toTaz="fh_1" departLane="free" departSpeed="max"/>
    <trip id="veh123" depart="4762.62" from="-3636462" to="E72" fromTaz="autobahn_in" toTaz="fh_2" departLane="free" departSpeed="max"/>
    <trip id="veh620" depart="4784.06" from="504566812#1" to="-341648794#0" fromTaz="fh_4" toTaz="bodensee_west_out" departLane="free" departSpeed="max"/>
    <trip id="veh434" depart="4830.56" from="-721302669#2" to="-341648794#0" fromTaz="fh_1" toTaz="bodensee_west_out" departLane="free" departSpeed="max"/>
    <trip id="veh219" depart="4834.86" from="-341648786#0" to="-E70" fromTaz="bodensee_east_in" toTaz="fh_2" departLane="free" departSpeed="max"/>
    <trip id="veh561" depart="4857.99" from="504566812#0" to="E29.86" fromTaz="fh_4" toTaz="aubinger_allee_out" departLane="free" departSpeed="max"/>
    <trip id="veh349" depart="4919.90" from="721304712#0" to="3636462" fromTaz="fh_1" toTaz="autobahn_out" departLane="free" departSpeed="max"/>
    <trip id="veh356" depart="4920.50" from="721302669#0" to="3636462" fromTaz="fh_1" toTaz="autobahn_out" departLane="free" departSpeed="max"/>
    <trip id="veh188" depart="4929.42" from="-3636462" to="407568052#2" fromTaz="autobahn_in" toTaz="fh_4" departLane="free" departSpeed="max"/>
    <trip id="veh237" depart="4934.21" from="-341648786#0" to="-153575259#7" fromTaz="bodensee_east_in" toTaz="wiesenfelser_out" departLane="free" departSpeed="max"/>
    <trip id="veh34" depart="4984.81" from="-E29" to="-E53" fromTaz="aubinger_allee_in" toTaz="fh_3" departLane="free" departSpeed="max"/>
    <trip id="veh557" depart="5005.23" from="-E40" to="-153575259#7" fromTaz="fh_3" toTaz="wiesenfelser_out" departLane="free" departSpeed="max"/>
    <trip id="veh441" depart="5007.95" from="-772719711#0" to="-341648794#0" fromTaz="fh_1" toTaz="bodensee_west_out" departLane="free" departSpeed="max"/>
    <trip id="veh651" depart="5017.46" from="153575259#7" to="4389175#1" fromTaz="wiesenfelser_in" toTaz="bodensee_west_out" departLane="free" departSpeed="max"/>
    <trip id="veh391" depart="5063.91" from="513652433#1" to="3636462" fromTaz="fh_1" toTaz="autobahn_out" departLane="free" departSpeed="max"/>
    <trip id="veh486" depart="5076.40" from="-E72" to="3636462" fromTaz="fh_2" toTaz="autobahn_out" departLane="free" departSpeed="max"/>
    <trip id="veh241" depart="5079.18" from="56222688#1" to="-153575259#7" fromTaz="bodensee_east_in" toTaz="wiesenfelser_out" departLane="free" departSpeed="max"/>
    <trip id="veh46" depart="5086.20" from="-E29" to="407581698#2" fromTaz="aubinger_allee_in" toTaz="fh_4" departLane="free" departSpeed="max"/>
    <trip id="veh139" depart="5107.84" from="-3636462" to="E44" fromTaz="autobahn_in" toTaz="fh_3" departLane="free" departSpeed="max"/>
    <trip id="veh321" depart="5135.90" from="-513652433#1" to="E29.86" fromTaz="fh_1" toTaz="aubinger_allee_out" departLane="free" departSpeed="max"/>
    <trip id="veh553" depart="5143.46" from="E49" to="4389175#1" fromTaz="fh_3" toTaz="bodensee_west_out" departLane="free" departSpeed="max"/>
    <trip id="veh474" depart="5147.55" from="E67" to="3636462" fromTaz="fh_2" toTaz="autobahn_out" departLane="free" departSpeed="max"/>
    <trip id="veh93" depart="5166.71" from="-3636462" to="-721304712#0" fromTaz="autobahn_in" toTaz="fh_1" departLane="free" departSpeed="max"/>
    <trip id="veh43" depart="5228.84" from="-E29" to="E14" fromTaz="aubinger_allee_in" toTaz="fh_4" departLane="free" departSpeed="max"/>
    <trip id="veh121" depart="5256.05" from="-3636462" to="E72" fromTaz="autobahn_in" toTaz="fh_2" departLane="free" departSpeed="max"/>
    <trip id="veh181" depart="5261.56" from="-3636462" to="407568052#1" fromTaz="autobahn_in" toTaz="fh_4" departLane="free" departSpeed="max"/>
    <trip id="veh197" depart="5276.37" from="-3636462" to="-504565992#3" fromTaz="autobahn_in" toTaz="fh_4" departLane="free" departSpeed="max"/>
    <trip id="veh367" depart="5308.51" from="721304712#0" to="3636462" fromTaz="fh_1" toTaz="autobahn_out" departLane="free" departSpeed="max"/>
    <trip id="veh333" depart="5323.78" from="513652433#1" to="E29.86" fromTaz="fh_1" toTaz="aubinger_allee_out" departLane="free" departSpeed="max"/>
    <trip id="veh388" depart="5326.87" from="-772719711#0" to="3636462" fromTaz="fh_1" toTaz="autobahn_out" departLane="free" departSpeed="max"/>